Version 4
SHEET 1 3432 1016
WIRE 496 -176 368 -176
WIRE 368 -144 368 -176
WIRE 496 -64 496 -176
WIRE 368 -32 368 -64
WIRE 560 -16 560 -64
WIRE 624 -16 560 -16
WIRE 624 0 624 -16
WIRE 496 32 496 -64
WIRE 560 32 560 -16
WIRE 496 80 496 32
WIRE 560 80 496 80
WIRE 640 96 496 96
WIRE 560 128 560 80
WIRE -16 144 -96 144
WIRE 96 144 64 144
WIRE 208 144 176 144
WIRE 352 144 288 144
WIRE 416 144 352 144
WIRE 464 144 416 144
WIRE 496 144 496 96
WIRE 528 144 496 144
WIRE 640 160 640 96
WIRE 640 160 592 160
WIRE 688 160 640 160
WIRE 800 160 688 160
WIRE 896 160 800 160
WIRE 464 176 464 144
WIRE 480 176 464 176
WIRE 528 176 480 176
WIRE -96 208 -96 144
WIRE 800 208 800 160
WIRE 560 224 560 192
WIRE 480 240 480 176
WIRE 528 240 480 240
WIRE 688 240 688 160
WIRE 688 240 592 240
WIRE 352 272 352 224
WIRE 416 272 416 208
WIRE 528 288 528 240
WIRE 592 288 592 240
WIRE -96 320 -96 288
WIRE 800 320 800 272
WIRE 528 384 528 352
WIRE 560 384 528 384
WIRE 592 384 592 352
WIRE 592 384 560 384
WIRE 560 416 560 384
FLAG 352 272 0
FLAG 416 272 0
FLAG 560 224 0
FLAG 560 416 0
FLAG -96 320 0
FLAG 368 -32 0
FLAG 624 0 0
FLAG 800 320 0
FLAG 896 160 OUT
FLAG 352 144 Noise
SYMBOL res 80 128 R90
WINDOW 0 0 56 VBottom 2
WINDOW 3 32 56 VTop 2
SYMATTR InstName R1
SYMATTR Value 330k
SYMBOL res 192 128 R90
WINDOW 0 0 56 VBottom 2
WINDOW 3 32 56 VTop 2
SYMATTR InstName R2
SYMATTR Value 330k
SYMBOL res 304 128 R90
WINDOW 0 0 56 VBottom 2
WINDOW 3 32 56 VTop 2
SYMATTR InstName R3
SYMATTR Value 330k
SYMBOL res 368 240 R180
WINDOW 0 36 76 Left 2
WINDOW 3 36 40 Left 2
SYMATTR InstName R4
SYMATTR Value 13k
SYMBOL OpAmps\\UniversalOpamp2 560 160 R0
SYMATTR InstName U1
SYMATTR SpiceModel level.3b
SYMATTR Value2 Avol=1Meg GBW=0.45Meg Slew=0.5Meg
SYMATTR SpiceLine ilimit=95m rail=0 Vos=9m phimargin=85
SYMATTR SpiceLine2 en=0 enk=0 in=0 ink=0 Rin=1e12
SYMBOL voltage -96 192 R0
WINDOW 123 24 124 Left 2
WINDOW 39 24 152 Left 2
SYMATTR Value2 AC 1
SYMATTR SpiceLine Rser=0.4
SYMATTR InstName V1
SYMATTR Value 250
SYMBOL voltage 368 -160 R0
WINDOW 123 0 0 Left 0
WINDOW 39 24 44 Left 2
SYMATTR SpiceLine Rser=0.4
SYMATTR InstName V2
SYMATTR Value 3.3
SYMBOL AutoGenerated\\szmmsz4680t1g 800 240 R270
SYMATTR InstName U2
SYMBOL cap 400 144 R0
WINDOW 3 24 56 Invisible 2
SYMATTR Value GCM033R71A103KA03
SYMATTR InstName C1
SYMATTR Prefix X
SYMBOL cap 560 16 R90
WINDOW 0 0 32 VBottom 2
WINDOW 3 32 32 Invisible 2
SYMATTR InstName C2
SYMATTR Value GCM033R71A103KA03
SYMATTR Prefix X
SYMBOL cap 560 -80 R90
WINDOW 0 0 32 VBottom 2
WINDOW 3 32 32 Invisible 2
SYMATTR InstName C3
SYMATTR Value GRM033R61A105ME15
SYMATTR Prefix X
SYMBOL TVSdiode 544 352 R180
WINDOW 3 24 -2 Invisible 2
WINDOW 0 24 65 Left 2
SYMATTR Value CPDV53V3UP
SYMATTR InstName D1
SYMBOL TVSdiode 608 352 R180
WINDOW 0 -33 65 Left 2
WINDOW 3 24 -2 Invisible 2
SYMATTR InstName D2
SYMATTR Value CPDV53V3UP
TEXT 1016 -104 Left 1 !*----------------------------------------------------------------------\n* SPICE Model generated by Murata Manufacturing Co., Ltd.\n* Copyright(C) Murata Manufacturing Co., Ltd.\n* Description :0603M(0201)/X7R/10000pF/10V\n* Murata P/N :GCM033R71A103KA03\n* Property : C = 10000[pF]\n* Data Generated on Nov 6, 2018\n*----------------------------------------------------------------------\n* Applicable Conditions:\n*   Frequency Range = 100Hz-6GHz\n*   Temperature = 25 degC\n;   DC Bias Voltage = 0V\n*   Small Signal Operation\n*----------------------------------------------------------------------\n.SUBCKT GCM033R71A103KA03 port1 port2\nC1 port1 11 9.87e-9\nL2 11 12 1.70e-10\nR3 12 13 4.92e-2\nC4 13 14 1.20e-6\nR4 13 14 3.08e+3\nC5 14 15 1.89e-6\nR5 14 15 330\nC6 15 16 1.55e-6\nR6 15 16 84.8\nC7 16 17 1.24e-6\nR7 16 17 11.0\nC8 17 18 9.09e-7\nR8 17 18 1.57\nC9 18 19 5.81e-7\nR9 18 19 2.57e-1\nC10 19 20 5.60e-7\nR10 19 20 2.12e-2\nL11 20 21 5.11e-11\nR11 20 21 1.97e-1\nC12 21 22 1.55e-8\nL12 21 22 1.60e-11\nR12 21 22 3.91e-2\nC13 22 port2 4.34e-12\nL13 22 port2 4.20e-11\nR13 22 port2 13.3\nR100 port1 11 1.00e+10\n.ENDS GCM033R71A103KA03
TEXT 1024 -136 Left 2 ;C1 C2
TEXT 1528 -104 Left 1 !*----------------------------------------------------------------------\n* SPICE Model generated by Murata Manufacturing Co., Ltd.\n* Copyright(C) Murata Manufacturing Co., Ltd.\n* Description :0603M(0201)/X5R/1uF/10V\n* Murata P/N :GRM033R61A105ME15\n* Property : C = 1[uF]\n* Data Generated on Jan 10, 2017\n*----------------------------------------------------------------------\n* Applicable Conditions:\n*   Frequency Range = 100Hz-6GHz\n*   Temperature = 25 degC\n;   DC Bias Voltage = 0V\n*   Small Signal Operation\n*----------------------------------------------------------------------\n.SUBCKT GRM033R61A105ME15 port1 port2\nC1 port1 11 8.67e-7\nL2 11 12 1.11e-10\nR3 12 13 1.40e-2\nC4 13 14 3.25e-5\nR4 13 14 179\nC5 14 15 7.01e-5\nR5 14 15 10.8\nC6 15 16 6.53e-5\nR6 15 16 1.44\nC7 16 17 6.54e-5\nR7 16 17 1.60e-1\nC8 17 18 4.87e-5\nR8 17 18 2.35e-2\nC9 18 19 1.55e-5\nR9 18 19 7.77e-3\nC10 19 20 1.39e-6\nL10 19 20 1.79e-11\nR10 19 20 4.49e-3\nC11 20 21 1.49e-8\nL11 20 21 6.65e-11\nR11 20 21 2.71e-2\nC12 21 22 1.90e-10\nL12 21 22 6.21e-11\nR12 21 22 1.71e-1\nC13 22 23 6.65e-10\nL13 22 23 5.05e-12\nR13 22 23 8.63e-2\nC14 23 port2 1.75e-11\nL14 23 port2 1.17e-11\nR14 23 port2 1.66\nR100 port1 11 5.00e+7\n.ENDS GRM033R61A105ME15
TEXT 1544 -128 Left 2 ;C3
TEXT 2072 -104 Left 1 !*Define's TVS diode model\n*Taken from CPDV53V3UP data sheet\n.model CPDV53V3UP D(IS=0.5u Cjo=12p Rs=1.5 BV=3.5 Ibv=2u Tnom=25)
TEXT 2080 -136 Left 2 ;D1 D2
TEXT -16 416 Left 2 !;tran 0 5s 0 0.2
TEXT -16 456 Left 2 !.noise V(OUT) V1 dec 100 0.2 100k
TEXT -16 512 Left 2 !;ac dec 100 0.2 100k
TEXT 2768 -120 Left 1 !.SUBCKT szmmsz4680t1g 2 1\n**************************************\n*      Model Generated by MODPEX     *\n*Copyright(c) Symmetry Design Systems*\n*         All Rights Reserved        *\n*    UNPUBLISHED LICENSED SOFTWARE   *\n*   Contains Proprietary Information *\n*      Which is The Property of      *\n*     SYMMETRY OR ITS LICENSORS      *\n*Commercial Use or Resale Restricted *\n*   by Symmetry License Agreement    *\n**************************************\n* Model generated on Nov 11, 13\n* MODEL FORMAT: SPICE3\n*     anode cathode\n*node: 2      1\n*    Forward Section\nD1 2 1 MD1 TEMP=25\n.MODEL MD1 D IS=6.57933e-10 N=1.84949 XTI=1 RS=2\n+ CJO=4e-10 TT=2e-09\n*    Leakage Current\nR 1 2 6.66667e+06 MDR           \n.MODEL MDR R TC1=-0.0679198 TC2=0.00155388\n*    Breakdown\nRZ 2 3 374.997\nIZG 4 3 0.276\nR4 4 3 25000\nD3 3 4 MD3 TEMP=25\n.MODEL MD3 D IS=2.5e-12 N=0.0280836 XTI=0 EG=0.1\nD2 5 4 MD2 TEMP=25\n.MODEL MD2 D IS=2.5e-12 N=0.241967 XTI=0 EG=0.1\nEV1 1 5 6 0 1\nIBV 0 6 0.001\nRBV 6 0 2094.62 MDRBV\n.MODEL MDRBV R TC1=-0.000735215\n*-- SPICE3 DIODE MODEL DEFAULT PARAMETER\n*  VALUES ARE ASSUMED\n*IS=1E-14 RS=0 N=1 TT=0 CJO=0\n*VJ=1 M=0.5 EG=1.11 XTI=3 FC=0.5\n*KF=0 AF=1 BV=inf IBV=1e-3 TNOM=27\n.ENDS szmmsz4680t1g
TEXT 2776 -152 Left 2 ;U2
